12
Properties=species:S:1:pos:R:3 pbc="F F F"
C        1.12049389       0.76299657      -0.60653523
C        1.16599513       0.57015344       0.70192914
C       -0.28413331       0.32303089      -0.73011422
C       -0.23284555       0.10340830       0.78666711
C       -0.52090902      -1.13274374      -0.82488026
C       -0.47777506      -1.32147191       0.48428958
H        1.84282064       1.05970697      -1.33901005
H        1.93858326       0.65102131       1.43840402
H       -1.00415935       0.99557151      -1.16408801
H       -0.91486845       0.62223271       1.43841650
H       -0.61798962      -1.78730173      -1.66638303
H       -0.52630156      -2.18663433       1.11276544
